<?xml version="1.0" encoding="UTF-8"?>

<!-- generated on 2025-06-02 13:21:08 by Eclipse SUMO netconvert Version 1.23.1
<netconvertConfiguration xmlns:xsi="http://www.w3.org/2001/XMLSchema-instance" xsi:noNamespaceSchemaLocation="http://sumo.dlr.de/xsd/netconvertConfiguration.xsd">

    <input>
        <osm-files value="src/map/../../data/map/Hornsgatan_large.osm"/>
    </input>

    <output>
        <output-prefix value="../../data/map/"/>
        <output-file value="src/map/Hornsgatan_large.net.xml"/>
        <plain-output-prefix value="src/map/pln"/>
        <output.street-names value="true"/>
        <output.original-names value="true"/>
        <ptstop-output value="src/map/osm_stops.add.xml"/>
        <ptline-output value="src/map/osm_ptlines.xml"/>
        <ptline-clean-up value="true"/>
    </output>

    <projection>
        <proj.utm value="true"/>
        <proj.plain-geo value="true"/>
    </projection>

    <processing>
        <plain.extend-edge-shape value="true"/>
        <geometry.remove value="true"/>
        <roundabouts.guess value="true"/>
    </processing>

    <tls_building>
        <tls.discard-simple value="true"/>
        <tls.join value="true"/>
        <tls.guess-signals value="true"/>
        <tls.default-type value="actuated"/>
    </tls_building>

    <ramp_guessing>
        <ramps.guess value="true"/>
    </ramp_guessing>

    <edge_removal>
        <keep-edges.by-vclass value="passenger,bus"/>
        <remove-edges.isolated value="true"/>
    </edge_removal>

    <junctions>
        <no-internal-links value="False"/>
        <junctions.join value="False"/>
        <junctions.corner-detail value="5"/>
    </junctions>

    <report>
        <verbose value="true"/>
    </report>

</netconvertConfiguration>
-->

<net version="1.20" junctionCornerDetail="5" limitTurnSpeed="5.50" xmlns:xsi="http://www.w3.org/2001/XMLSchema-instance" xsi:noNamespaceSchemaLocation="http://sumo.dlr.de/xsd/net_file.xsd">

    <location netOffset="-330972.85,-6578694.89" convBoundary="0.00,0.00,1393.71,695.60" origBoundary="18.024835,59.311334,18.072423,59.320360" projParameter="+proj=utm +zone=34 +ellps=WGS84 +datum=WGS84 +units=m +no_defs"/>

    <type id="highway.living_street" priority="2" numLanes="1" speed="2.78" disallow="tram rail_urban rail rail_electric rail_fast ship container cable_car subway aircraft wheelchair scooter drone" oneway="0"/>
    <type id="highway.residential" priority="3" numLanes="1" speed="13.89" disallow="tram rail_urban rail rail_electric rail_fast ship container cable_car subway aircraft wheelchair scooter drone" oneway="0"/>
    <type id="highway.secondary" priority="11" numLanes="1" speed="27.78" disallow="tram rail_urban rail rail_electric rail_fast ship container cable_car subway aircraft wheelchair scooter drone" oneway="0"/>
    <type id="highway.secondary_link" priority="6" numLanes="1" speed="22.22" disallow="tram rail_urban rail rail_electric rail_fast ship container cable_car subway aircraft wheelchair scooter drone" oneway="0"/>
    <type id="highway.tertiary" priority="10" numLanes="1" speed="22.22" disallow="tram rail_urban rail rail_electric rail_fast ship container cable_car subway aircraft wheelchair scooter drone" oneway="0"/>
    <type id="highway.unclassified" priority="4" numLanes="1" speed="13.89" disallow="tram rail_urban rail rail_electric rail_fast ship container cable_car subway aircraft wheelchair scooter drone" oneway="0"/>

    <edge id=":10147786750_0" function="internal">
        <lane id=":10147786750_0_0" index="0" disallow="tram rail_urban rail rail_electric rail_fast ship container cable_car subway aircraft wheelchair scooter drone" speed="8.33" length="3.00" shape="1036.38,111.93 1033.38,111.82"/>
    </edge>
    <edge id=":10147786750_1" function="internal">
        <lane id=":10147786750_1_0" index="0" disallow="tram rail_urban rail rail_electric rail_fast ship container cable_car subway aircraft wheelchair scooter drone" speed="8.33" length="3.00" width="3.25" shape="1033.47,108.62 1036.47,108.68"/>
    </edge>
    <edge id=":1025143176_0" function="internal">
        <lane id=":1025143176_0_0" index="0" disallow="tram rail_urban rail rail_electric rail_fast ship container cable_car subway aircraft wheelchair scooter drone" speed="6.94" length="10.29" shape="687.28,501.85 684.14,501.58 681.73,502.16 680.05,503.58 679.11,505.85"/>
    </edge>
    <edge id=":1025143176_1" function="internal">
        <lane id=":1025143176_1_0" index="0" disallow="tram rail_urban rail rail_electric rail_fast ship container cable_car subway aircraft wheelchair scooter drone" speed="7.28" length="11.64" shape="687.28,501.85 683.60,500.77 681.12,499.21 679.87,497.18 679.83,494.69"/>
    </edge>
    <edge id=":1025143176_2" function="internal">
        <lane id=":1025143176_2_0" index="0" disallow="tram rail_urban rail rail_electric rail_fast ship container cable_car subway aircraft wheelchair scooter drone" speed="8.33" length="11.23" shape="682.96,495.33 682.08,498.36 681.05,500.60 680.01,502.84 679.11,505.85"/>
    </edge>
    <edge id=":1025143176_3" function="internal">
        <lane id=":1025143176_3_0" index="0" disallow="tram rail_urban rail rail_electric rail_fast ship container cable_car subway aircraft wheelchair scooter drone" speed="3.65" length="4.67" shape="682.96,495.33 681.93,496.35 681.07,496.58 680.37,496.02 679.83,494.69"/>
    </edge>
    <edge id=":10637163562_0" function="internal">
        <lane id=":10637163562_0_0" index="0" disallow="pedestrian tram rail_urban rail rail_electric rail_fast ship container cable_car subway aircraft wheelchair scooter drone" speed="9.72" length="0.30" shape="248.32,188.95 248.30,189.29"/>
        <lane id=":10637163562_0_1" index="1" disallow="pedestrian tram rail_urban rail rail_electric rail_fast ship container cable_car subway aircraft wheelchair scooter drone" speed="9.72" length="0.30" shape="245.12,188.83 245.11,189.14"/>
        <lane id=":10637163562_0_2" index="2" disallow="pedestrian tram rail_urban rail rail_electric rail_fast ship container cable_car subway aircraft wheelchair scooter drone" speed="9.72" length="0.30" shape="241.92,188.70 241.91,188.98"/>
        <lane id=":10637163562_0_3" index="3" disallow="pedestrian tram rail_urban rail rail_electric rail_fast ship container cable_car subway aircraft wheelchair scooter drone" speed="9.72" length="0.30" shape="238.73,188.58 238.71,188.83"/>
    </edge>
    <edge id=":10637163563_0" function="internal">
        <lane id=":10637163563_0_0" index="0" disallow="pedestrian tram rail_urban rail rail_electric rail_fast ship container cable_car subway aircraft wheelchair scooter drone" speed="9.72" length="0.33" shape="224.79,176.84 224.81,176.73"/>
        <lane id=":10637163563_0_1" index="1" disallow="pedestrian tram rail_urban rail rail_electric rail_fast ship container cable_car subway aircraft wheelchair scooter drone" speed="9.72" length="0.33" shape="227.95,177.38 227.99,177.05"/>
        <lane id=":10637163563_0_2" index="2" disallow="pedestrian tram rail_urban rail rail_electric rail_fast ship container cable_car subway aircraft wheelchair scooter drone" speed="9.72" length="0.33" shape="231.10,177.92 231.18,177.37"/>
    </edge>
    <edge id=":1089010847_0" function="internal">
        <lane id=":1089010847_0_0" index="0" disallow="tram rail_urban rail rail_electric rail_fast ship container cable_car subway aircraft wheelchair scooter drone" speed="3.65" length="4.67" shape="1010.52,339.81 1009.51,340.84 1008.65,341.08 1007.94,340.53 1007.38,339.20"/>
    </edge>
    <edge id=":1148955258_0" function="internal">
        <lane id=":1148955258_0_0" index="0" disallow="tram rail_urban rail rail_electric rail_fast ship container cable_car subway aircraft wheelchair scooter drone" speed="8.33" length="9.96" shape="790.91,267.99 788.05,267.87 786.07,268.58 784.07,269.31 781.21,269.26"/>
    </edge>
    <edge id=":1148955258_1" function="internal">
        <lane id=":1148955258_1_0" index="0" disallow="tram rail_urban rail rail_electric rail_fast ship container cable_car subway aircraft wheelchair scooter drone" speed="8.33" length="12.14" shape="790.91,267.99 787.94,266.81 785.91,265.02 784.13,262.78 781.91,260.23"/>
    </edge>
    <edge id=":1148955258_2" function="internal">
        <lane id=":1148955258_2_0" index="0" disallow="tram rail_urban rail rail_electric rail_fast ship container cable_car subway aircraft wheelchair scooter drone" speed="3.65" length="4.67" shape="790.91,267.99 789.91,266.94 789.70,266.08 790.27,265.38 791.61,264.87"/>
    </edge>
    <edge id=":1148955258_3" function="internal">
        <lane id=":1148955258_3_0" index="0" disallow="tram rail_urban rail rail_electric rail_fast ship container cable_car subway aircraft wheelchair scooter drone" speed="8.33" length="8.98" shape="785.20,258.98 786.90,261.06 787.97,262.72 789.25,263.98 791.61,264.87"/>
    </edge>
    <edge id=":1148955258_4" function="internal">
        <lane id=":1148955258_4_0" index="0" disallow="tram rail_urban rail rail_electric rail_fast ship container cable_car subway aircraft wheelchair scooter drone" speed="7.52" length="21.75" shape="785.20,258.98 790.15,264.81 791.14,268.47 788.15,269.95 781.21,269.26"/>
    </edge>
    <edge id=":1148955258_5" function="internal">
        <lane id=":1148955258_5_0" index="0" disallow="tram rail_urban rail rail_electric rail_fast ship container cable_car subway aircraft wheelchair scooter drone" speed="3.77" length="5.13" shape="785.20,258.98 784.84,260.53 784.18,261.25 783.20,261.15 781.91,260.23"/>
    </edge>
    <edge id=":1148955258_6" function="internal">
        <lane id=":1148955258_6_0" index="0" disallow="tram rail_urban rail rail_electric rail_fast ship container cable_car subway aircraft wheelchair scooter drone" speed="5.70" length="11.69" shape="779.64,265.68 783.41,266.06 785.05,265.28 784.55,263.34 781.91,260.23"/>
    </edge>
    <edge id=":1148955258_7" function="internal">
        <lane id=":1148955258_7_0" index="0" disallow="tram rail_urban rail rail_electric rail_fast ship container cable_car subway aircraft wheelchair scooter drone" speed="8.33" length="12.10" shape="779.64,265.68 782.89,265.81 785.64,265.23 788.37,264.67 791.61,264.87"/>
    </edge>
    <edge id=":1148955258_8" function="internal">
        <lane id=":1148955258_8_0" index="0" disallow="tram rail_urban rail rail_electric rail_fast ship container cable_car subway aircraft wheelchair scooter drone" speed="3.91" length="5.70" shape="779.64,265.68 781.37,265.99 782.21,266.69 782.15,267.78 781.21,269.26"/>
    </edge>
    <edge id=":11554553903_0" function="internal">
        <lane id=":11554553903_0_0" index="0" disallow="pedestrian tram rail_urban rail rail_electric rail_fast ship container cable_car subway aircraft wheelchair scooter drone" speed="13.89" length="8.21" shape="284.62,241.58 282.23,241.32 280.54,241.53 278.86,241.73 276.47,241.48"/>
        <lane id=":11554553903_0_1" index="1" disallow="pedestrian tram rail_urban rail rail_electric rail_fast ship container cable_car subway aircraft wheelchair scooter drone" speed="13.89" length="8.21" shape="284.62,241.58 282.33,240.83 280.88,239.96 279.42,239.09 277.13,238.35"/>
        <lane id=":11554553903_0_2" index="2" disallow="pedestrian tram rail_urban rail rail_electric rail_fast ship container cable_car subway aircraft wheelchair scooter drone" speed="13.89" length="8.21" shape="285.29,238.45 283.00,237.70 281.54,236.83 280.09,235.96 277.80,235.22"/>
        <lane id=":11554553903_0_3" index="3" disallow="pedestrian tram rail_urban rail rail_electric rail_fast ship container cable_car subway aircraft wheelchair scooter drone" speed="13.89" length="8.21" shape="285.95,235.32 283.66,234.57 282.21,233.70 280.75,232.83 278.46,232.09"/>
    </edge>
    <edge id=":1258633720_0" function="internal">
        <lane id=":1258633720_0_0" index="0" disallow="tram rail_urban rail rail_electric rail_fast ship container cable_car subway aircraft wheelchair scooter drone" speed="8.33" length="1.73" width="3.25" shape="1220.58,140.17 1218.90,139.80"/>
    </edge>
    <edge id=":1258633720_1" function="internal">
        <lane id=":1258633720_1_0" index="0" disallow="tram rail_urban rail rail_electric rail_fast ship container cable_car subway aircraft wheelchair scooter drone" speed="8.33" length="1.50" shape="1219.67,136.65 1221.12,137.01"/>
    </edge>
    <edge id=":1550182458_0" function="internal">
        <lane id=":1550182458_0_0" index="0" disallow="pedestrian tram rail_urban rail rail_electric rail_fast ship container cable_car subway aircraft wheelchair scooter drone" speed="5.81" length="6.62" shape="147.71,521.63 147.31,521.08 147.26,519.83 147.56,517.89 148.20,515.25"/>
    </edge>
    <edge id=":1550182458_1" function="internal">
        <lane id=":1550182458_1_0" index="0" disallow="tram rail_urban rail rail_electric rail_fast ship container cable_car subway aircraft wheelchair scooter drone" speed="3.65" length="4.67" shape="147.71,521.63 146.85,520.48 146.74,519.59 147.38,518.97 148.78,518.61"/>
    </edge>
    <edge id=":1550182458_2" function="internal">
        <lane id=":1550182458_2_0" index="0" disallow="pedestrian tram rail_urban rail rail_electric rail_fast ship container cable_car subway aircraft wheelchair scooter drone" speed="11.11" length="9.70" shape="141.04,523.16 142.04,520.48 143.08,518.78 144.12,517.08 145.12,514.40"/>
        <lane id=":1550182458_2_1" index="1" disallow="pedestrian tram rail_urban rail rail_electric rail_fast ship container cable_car subway aircraft wheelchair scooter drone" speed="11.11" length="9.70" shape="144.13,524.01 145.13,521.33 146.17,519.63 147.21,517.93 148.20,515.25"/>
    </edge>
    <edge id=":1551627504_0" function="internal">
        <lane id=":1551627504_0_0" index="0" disallow="tram rail_urban rail rail_electric rail_fast ship container cable_car subway aircraft wheelchair scooter drone" speed="8.33" length="2.72" width="4.15" shape="1131.49,564.18 1130.84,564.66 1130.40,565.00 1129.94,565.31 1129.26,565.73"/>
    </edge>
    <edge id=":1551627504_1" function="internal">
        <lane id=":1551627504_1_0" index="0" disallow="tram rail_urban rail rail_electric rail_fast ship container cable_car subway aircraft wheelchair scooter drone" speed="8.33" length="2.31" width="4.00" shape="1127.16,562.14 1127.76,561.80 1128.17,561.58 1128.58,561.33 1129.14,560.94"/>
    </edge>
    <edge id=":159867_0" function="internal">
        <lane id=":159867_0_0" index="0" disallow="pedestrian tram rail_urban rail rail_electric rail_fast ship container cable_car subway aircraft wheelchair scooter drone" speed="8.33" length="0.90" shape="248.28,163.52 248.37,163.98 248.41,164.30 248.44,164.62 248.46,165.08"/>
        <lane id=":159867_0_1" index="1" disallow="pedestrian tram rail_urban rail rail_electric rail_fast ship container cable_car subway aircraft wheelchair scooter drone" speed="8.33" length="0.90" shape="245.14,164.12 245.20,164.44 245.23,164.67 245.25,164.90 245.27,165.23"/>
        <lane id=":159867_0_2" index="2" disallow="pedestrian tram rail_urban rail rail_electric rail_fast ship container cable_car subway aircraft wheelchair scooter drone" speed="8.33" length="0.90" shape="241.99,164.71 242.03,164.91 242.05,165.04 242.06,165.18 242.07,165.38"/>
        <lane id=":159867_0_3" index="3" disallow="pedestrian tram rail_urban rail rail_electric rail_fast ship container cable_car subway aircraft wheelchair scooter drone" speed="8.33" length="0.90" shape="238.85,165.31 238.86,165.37 238.87,165.42 238.87,165.46 238.87,165.53"/>
    </edge>
    <edge id=":159868_0" function="internal">
        <lane id=":159868_0_0" index="0" disallow="pedestrian tram rail_urban rail rail_electric rail_fast ship container cable_car subway aircraft wheelchair scooter drone" speed="6.83" length="8.57" shape="241.88,234.90 239.41,234.93 237.45,235.58 236.01,236.86 235.08,238.75"/>
    </edge>
    <edge id=":159868_1" function="internal">
        <lane id=":159868_1_0" index="0" disallow="pedestrian tram rail_urban rail rail_electric rail_fast ship container cable_car subway aircraft wheelchair scooter drone" speed="13.89" length="12.51" shape="242.21,231.72 238.39,231.07 235.67,230.23 233.19,229.41 230.07,228.82"/>
    </edge>
    <edge id=":159868_2" function="internal">
        <lane id=":159868_2_0" index="0" disallow="pedestrian tram rail_urban rail rail_electric rail_fast ship container cable_car subway aircraft wheelchair scooter drone" speed="11.11" length="15.79" shape="238.12,223.28 237.35,226.65 236.91,229.98 236.32,233.83 235.08,238.75"/>
        <lane id=":159868_2_1" index="1" disallow="pedestrian tram rail_urban rail rail_electric rail_fast ship container cable_car subway aircraft wheelchair scooter drone" speed="11.11" length="15.79" shape="238.12,223.28 236.87,226.51 235.38,229.52 233.74,233.04 232.02,237.82"/>
    </edge>
    <edge id=":159896_0" function="internal">
        <lane id=":159896_0_0" index="0" disallow="pedestrian tram rail_urban rail rail_electric rail_fast ship container cable_car subway aircraft wheelchair scooter drone" speed="7.67" length="12.98" shape="407.32,265.75 403.43,265.41 400.45,266.17 398.37,268.04 397.20,271.01"/>
    </edge>
    <edge id=":159896_1" function="internal">
        <lane id=":159896_1_0" index="0" disallow="pedestrian tram rail_urban rail rail_electric rail_fast ship container cable_car subway aircraft wheelchair scooter drone" speed="13.89" length="21.04" shape="407.32,265.75 387.09,260.01"/>
        <lane id=":159896_1_1" index="1" disallow="pedestrian tram rail_urban rail rail_electric rail_fast ship container cable_car subway aircraft wheelchair scooter drone" speed="13.89" length="21.04" shape="407.97,262.62 387.72,256.88"/>
    </edge>
    <edge id=":159896_3" function="internal">
        <lane id=":159896_3_0" index="0" disallow="pedestrian tram rail_urban rail rail_electric rail_fast ship container cable_car subway aircraft wheelchair scooter drone" speed="8.17" length="14.81" width="6.50" shape="407.97,262.62 402.12,261.20 398.04,259.73 395.72,258.21 395.16,256.63"/>
    </edge>
    <edge id=":159896_4" function="internal">
        <lane id=":159896_4_0" index="0" disallow="tram rail_urban rail rail_electric rail_fast ship container cable_car subway aircraft wheelchair scooter drone" speed="8.33" length="13.80" shape="401.53,257.92 400.57,261.35 399.37,264.47 398.16,267.59 397.20,271.01"/>
    </edge>
    <edge id=":159896_5" function="internal">
        <lane id=":159896_5_0" index="0" disallow="pedestrian tram rail_urban rail rail_electric rail_fast ship container cable_car subway aircraft wheelchair scooter drone" speed="8.26" length="14.09" shape="401.53,257.92 400.54,258.47 397.91,258.48 393.64,257.95 387.72,256.88"/>
    </edge>
    <edge id=":159896_6" function="internal">
        <lane id=":159896_6_0" index="0" disallow="tram rail_urban rail rail_electric rail_fast ship container cable_car subway aircraft wheelchair scooter drone" speed="5.20" length="9.49" width="6.50" shape="401.53,257.92 399.45,259.99 397.70,260.46 396.27,259.35 395.16,256.63"/>
    </edge>
    <edge id=":159896_7" function="internal">
        <lane id=":159896_7_0" index="0" disallow="pedestrian tram rail_urban rail rail_electric rail_fast ship container cable_car subway aircraft wheelchair scooter drone" speed="7.34" length="11.79" shape="394.06,270.38 394.01,267.87 392.72,265.83 390.21,264.26 386.46,263.15"/>
    </edge>
    <edge id=":159896_8" function="internal">
        <lane id=":159896_8_0" index="0" disallow="tram rail_urban rail rail_electric rail_fast ship container cable_car subway aircraft wheelchair scooter drone" speed="8.33" length="13.81" width="6.50" shape="394.06,270.38 394.52,266.86 394.61,263.51 394.71,260.16 395.16,256.63"/>
    </edge>
    <edge id=":159896_9" function="internal">
        <lane id=":159896_9_0" index="0" disallow="tram rail_urban rail rail_electric rail_fast ship container cable_car subway aircraft wheelchair scooter drone" speed="3.65" length="4.67" shape="394.06,270.38 395.09,269.36 395.95,269.13 396.65,269.68 397.20,271.01"/>
    </edge>
    <edge id=":160871_0" function="internal">
        <lane id=":160871_0_0" index="0" disallow="tram rail_urban rail rail_electric rail_fast ship container cable_car subway aircraft wheelchair scooter drone" speed="3.65" length="4.67" shape="777.41,149.87 776.03,150.30 775.16,150.11 774.79,149.30 774.91,147.86"/>
    </edge>
    <edge id=":160875_0" function="internal">
        <lane id=":160875_0_0" index="0" disallow="tram rail_urban rail rail_electric rail_fast ship container cable_car subway aircraft wheelchair scooter drone" speed="8.33" length="11.43" shape="1232.00,142.41 1220.78,140.20"/>
    </edge>
    <edge id=":160875_1" function="internal">
        <lane id=":160875_1_0" index="0" disallow="pedestrian tram rail_urban rail rail_electric rail_fast ship container cable_car subway aircraft wheelchair scooter drone" speed="6.98" length="10.41" shape="1232.00,142.41 1230.55,141.52 1229.77,139.65 1229.66,136.82 1230.23,133.01"/>
    </edge>
    <edge id=":160875_2" function="internal">
        <lane id=":160875_2_0" index="0" disallow="tram rail_urban rail rail_electric rail_fast ship container cable_car subway aircraft wheelchair scooter drone" speed="3.65" length="4.67" shape="1232.00,142.41 1231.01,141.36 1230.80,140.49 1231.36,139.80 1232.71,139.29"/>
    </edge>
    <edge id=":160875_3" function="internal">
        <lane id=":160875_3_0" index="0" disallow="pedestrian tram rail_urban rail rail_electric rail_fast ship container cable_car subway aircraft wheelchair scooter drone" speed="6.38" length="8.40" shape="1221.32,137.05 1223.42,137.05 1225.08,136.27 1226.30,134.70 1227.09,132.35"/>
    </edge>
    <edge id=":160875_4" function="internal">
        <lane id=":160875_4_0" index="0" disallow="tram rail_urban rail rail_electric rail_fast ship container cable_car subway aircraft wheelchair scooter drone" speed="8.33" length="11.61" shape="1221.32,137.05 1232.71,139.29"/>
    </edge>
    <edge id=":160875_5" function="internal">
        <lane id=":160875_5_0" index="0" disallow="tram rail_urban rail rail_electric rail_fast ship container cable_car subway aircraft wheelchair scooter drone" speed="3.65" length="4.67" shape="1221.32,137.05 1222.37,138.04 1222.63,138.89 1222.10,139.62 1220.78,140.20"/>
    </edge>
    <edge id=":160875_6" function="internal">
        <lane id=":160875_6_0" index="0" disallow="pedestrian tram rail_urban rail rail_electric rail_fast ship container cable_car subway aircraft wheelchair scooter drone" speed="6.12" length="8.16" shape="1224.04,146.51 1224.30,144.04 1223.84,142.16 1222.67,140.88 1220.78,140.20"/>
    </edge>
    <edge id=":160875_7" function="internal">
        <lane id=":160875_7_0" index="0" disallow="pedestrian tram rail_urban rail rail_electric rail_fast ship container cable_car subway aircraft wheelchair scooter drone" speed="8.33" length="14.51" shape="1224.04,146.51 1227.09,132.35"/>
        <lane id=":160875_7_1" index="1" disallow="pedestrian tram rail_urban rail rail_electric rail_fast ship container cable_car subway aircraft wheelchair scooter drone" speed="8.33" length="14.51" shape="1227.16,147.21 1230.23,133.01"/>
    </edge>
    <edge id=":160875_9" function="internal">
        <lane id=":160875_9_0" index="0" disallow="pedestrian tram rail_urban rail rail_electric rail_fast ship container cable_car subway aircraft wheelchair scooter drone" speed="6.97" length="10.54" shape="1227.16,147.21 1228.24,143.44 1229.52,140.86 1231.01,139.48 1232.71,139.29"/>
    </edge>
    <edge id=":160877_0" function="internal">
        <lane id=":160877_0_0" index="0" disallow="pedestrian tram rail_urban rail rail_electric rail_fast ship container cable_car subway aircraft wheelchair scooter drone" speed="11.11" length="0.10" shape="1233.00,103.67 1233.02,103.57"/>
        <lane id=":160877_0_1" index="1" disallow="pedestrian tram rail_urban rail rail_electric rail_fast ship container cable_car subway aircraft wheelchair scooter drone" speed="11.11" length="0.10" shape="1236.14,104.25 1236.12,104.34"/>
    </edge>
    <edge id=":160909_0" function="internal">
        <lane id=":160909_0_0" index="0" disallow="tram rail_urban rail rail_electric rail_fast ship container cable_car subway aircraft wheelchair scooter drone" speed="4.21" length="6.21" width="4.25" shape="421.79,130.63 423.15,129.28 424.30,128.97 425.23,129.70 425.96,131.47"/>
    </edge>
    <edge id=":1639252515_0" function="internal">
        <lane id=":1639252515_0_0" index="0" disallow="pedestrian tram rail_urban rail rail_electric rail_fast ship container cable_car subway aircraft wheelchair scooter drone" speed="11.11" length="0.24" shape="1244.01,105.75 1243.97,105.93"/>
        <lane id=":1639252515_0_1" index="1" disallow="pedestrian tram rail_urban rail rail_electric rail_fast ship container cable_car subway aircraft wheelchair scooter drone" speed="11.11" length="0.24" shape="1240.89,105.03 1240.83,105.32"/>
    </edge>
    <edge id=":1639252528_0" function="internal">
        <lane id=":1639252528_0_0" index="0" disallow="pedestrian tram rail_urban rail rail_electric rail_fast ship container cable_car subway aircraft wheelchair scooter drone" speed="8.33" length="9.47" shape="1237.84,137.13 1235.92,146.44"/>
        <lane id=":1639252528_0_1" index="1" disallow="pedestrian tram rail_urban rail rail_electric rail_fast ship container cable_car subway aircraft wheelchair scooter drone" speed="8.33" length="9.47" shape="1234.70,136.52 1232.79,145.76"/>
    </edge>
    <edge id=":1639252528_2" function="internal">
        <lane id=":1639252528_2_0" index="0" disallow="pedestrian tram rail_urban rail rail_electric rail_fast ship container cable_car subway aircraft wheelchair scooter drone" speed="5.65" length="6.71" shape="1234.70,136.52 1234.09,139.22 1233.47,141.12 1232.83,142.19 1232.19,142.45"/>
    </edge>
    <edge id=":1639252528_3" function="internal">
        <lane id=":1639252528_3_0" index="0" disallow="pedestrian tram rail_urban rail rail_electric rail_fast ship container cable_car subway aircraft wheelchair scooter drone" speed="5.71" length="6.66" shape="1232.91,139.33 1233.36,139.84 1233.49,141.08 1233.30,143.05 1232.79,145.76"/>
    </edge>
    <edge id=":1639252528_4" function="internal">
        <lane id=":1639252528_4_0" index="0" disallow="tram rail_urban rail rail_electric rail_fast ship container cable_car subway aircraft wheelchair scooter drone" speed="3.65" length="4.67" shape="1232.91,139.33 1233.90,140.38 1234.11,141.25 1233.54,141.94 1232.19,142.45"/>
    </edge>
    <edge id=":1639252558_0" function="internal">
        <lane id=":1639252558_0_0" index="0" disallow="pedestrian tram rail_urban rail rail_electric rail_fast ship container cable_car subway aircraft wheelchair scooter drone" speed="8.33" length="9.62" shape="1196.65,331.00 1196.61,333.84 1197.37,335.79 1198.15,337.74 1198.20,340.59"/>
        <lane id=":1639252558_0_1" index="1" disallow="pedestrian tram rail_urban rail rail_electric rail_fast ship container cable_car subway aircraft wheelchair scooter drone" speed="8.33" length="9.62" shape="1196.65,331.00 1195.04,340.07"/>
        <lane id=":1639252558_0_2" index="2" disallow="pedestrian tram rail_urban rail rail_electric rail_fast ship container cable_car subway aircraft wheelchair scooter drone" speed="8.33" length="9.62" shape="1193.51,330.39 1191.88,339.56"/>
        <lane id=":1639252558_0_3" index="3" disallow="pedestrian tram rail_urban rail rail_electric rail_fast ship container cable_car subway aircraft wheelchair scooter drone" speed="8.33" length="9.62" shape="1193.51,330.39 1192.48,333.11 1191.06,334.71 1189.67,336.32 1188.72,339.05"/>
    </edge>
    <edge id=":1639252558_4" function="internal">
        <lane id=":1639252558_4_0" index="0" disallow="pedestrian tram rail_urban rail rail_electric rail_fast ship container cable_car subway aircraft wheelchair scooter drone" speed="6.02" length="7.47" shape="1193.51,330.39 1192.82,333.06 1191.96,334.90 1190.92,335.91 1189.70,336.09"/>
    </edge>
    <edge id=":1639252558_5" function="internal">
        <lane id=":1639252558_5_0" index="0" disallow="pedestrian tram rail_urban rail rail_electric rail_fast ship container cable_car subway aircraft wheelchair scooter drone" speed="6.00" length="7.44" shape="1190.25,332.94 1191.34,333.53 1191.97,334.82 1192.15,336.84 1191.88,339.56"/>
        <lane id=":1639252558_5_1" index="1" disallow="pedestrian tram rail_urban rail rail_electric rail_fast ship container cable_car subway aircraft wheelchair scooter drone" speed="5.58" length="6.30" shape="1190.25,332.94 1188.72,339.05"/>
    </edge>
    <edge id=":1639252558_7" function="internal">
        <lane id=":1639252558_7_0" index="0" disallow="tram rail_urban rail rail_electric rail_fast ship container cable_car subway aircraft wheelchair scooter drone" speed="3.65" length="4.67" shape="1190.25,332.94 1191.29,333.93 1191.55,334.79 1191.02,335.51 1189.70,336.09"/>
    </edge>
    <edge id=":1639252584_0" function="internal">
        <lane id=":1639252584_0_0" index="0" disallow="pedestrian tram rail_urban rail rail_electric rail_fast ship container cable_car subway aircraft wheelchair scooter drone" speed="6.51" length="8.72" shape="1162.61,407.33 1164.98,407.45 1166.86,406.79 1168.24,405.36 1169.11,403.16"/>
    </edge>
    <edge id=":1639252584_1" function="internal">
        <lane id=":1639252584_1_0" index="0" disallow="pedestrian tram rail_urban rail rail_electric rail_fast ship container cable_car subway aircraft wheelchair scooter drone" speed="8.33" length="9.94" shape="1162.00,410.47 1164.92,410.78 1166.95,410.61 1168.99,410.46 1171.89,410.81"/>
    </edge>
    <edge id=":1639252584_2" function="internal">